&NAM_NEBn
  LSUBG_COND=.TRUE.,
/
&NAM_TURBn
  XTKEMIN=1.E-6,
  XLINI=0.,
/
&NAM_PARAM_ICEN
  CSUBG_AUCV_RC='PDF'
/
